/*--------------------------------*- C++ -*----------------------------------*\
  =========                 |
  \\      /  F ield         | OpenFOAM: The Open Source CFD Toolbox
   \\    /   O peration     | Website:  https://openfoam.org
    \\  /    A nd           | Version:  7
     \\/     M anipulation  |
\*---------------------------------------------------------------------------*/
FoamFile
{
    version     2.0;
    format      ascii;
    class       polyBoundaryMesh;
    location    "constant/polyMesh";
    object      boundary;
}
// * * * * * * * * * * * * * * * * * * * * * * * * * * * * * * * * * * * * * //

24
(
    inlet-l
    {
        type            patch;
        nFaces          107;
        startFace       183904;
    }
    airfoil-l1
    {
        type            wall;
        inGroups        List<word> 1(wall);
        nFaces          107;
        startFace       184011;
    }
    empty-1
    {
        type            empty;
        inGroups        List<word> 1(empty);
        nFaces          19902;
        startFace       184118;
    }
    empty-2
    {
        type            empty;
        inGroups        List<word> 1(empty);
        nFaces          19902;
        startFace       204020;
    }
    wall-l1
    {
        type            wall;
        inGroups        List<word> 1(wall);
        nFaces          67;
        startFace       223922;
    }
    airfoil-l2
    {
        type            wall;
        inGroups        List<word> 1(wall);
        nFaces          67;
        startFace       223989;
    }
    empty-3
    {
        type            empty;
        inGroups        List<word> 1(empty);
        nFaces          12462;
        startFace       224056;
    }
    empty-4
    {
        type            empty;
        inGroups        List<word> 1(empty);
        nFaces          12462;
        startFace       236518;
    }
    wall-l2
    {
        type            wall;
        inGroups        List<word> 1(wall);
        nFaces          74;
        startFace       248980;
    }
    outlet-l
    {
        type            patch;
        nFaces          186;
        startFace       249054;
    }
    empty-5
    {
        type            empty;
        inGroups        List<word> 1(empty);
        nFaces          13764;
        startFace       249240;
    }
    empty-6
    {
        type            empty;
        inGroups        List<word> 1(empty);
        nFaces          13764;
        startFace       263004;
    }
    outlet-h
    {
        type            patch;
        nFaces          186;
        startFace       276768;
    }
    wall-h2
    {
        type            wall;
        inGroups        List<word> 1(wall);
        nFaces          74;
        startFace       276954;
    }
    empty-7
    {
        type            empty;
        inGroups        List<word> 1(empty);
        nFaces          13764;
        startFace       277028;
    }
    empty-8
    {
        type            empty;
        inGroups        List<word> 1(empty);
        nFaces          13764;
        startFace       290792;
    }
    airfoil-h2
    {
        type            wall;
        inGroups        List<word> 1(wall);
        nFaces          67;
        startFace       304556;
    }
    wall-h1
    {
        type            wall;
        inGroups        List<word> 1(wall);
        nFaces          67;
        startFace       304623;
    }
    empty-9
    {
        type            empty;
        inGroups        List<word> 1(empty);
        nFaces          12462;
        startFace       304690;
    }
    empty-10
    {
        type            empty;
        inGroups        List<word> 1(empty);
        nFaces          12462;
        startFace       317152;
    }
    inlet-h
    {
        type            patch;
        nFaces          107;
        startFace       329614;
    }
    airfoil-h1
    {
        type            wall;
        inGroups        List<word> 1(wall);
        nFaces          107;
        startFace       329721;
    }
    empty-11
    {
        type            empty;
        inGroups        List<word> 1(empty);
        nFaces          19902;
        startFace       329828;
    }
    empty-12
    {
        type            empty;
        inGroups        List<word> 1(empty);
        nFaces          19902;
        startFace       349730;
    }
)

// ************************************************************************* //
