/*--------------------------------*- C++ -*----------------------------------*\
| =========                 |                                                 |
| \\      /  F ield         | OpenFOAM: The Open Source CFD Toolbox           |
|  \\    /   O peration     | Version:  2.3.0                                 |
|   \\  /    A nd           | Web:      www.OpenFOAM.org                      |
|    \\/     M anipulation  |                                                 |
\*---------------------------------------------------------------------------*/
FoamFile
{
    version     2.0;
    format      ascii;
    class       dictionary;
    object      blockMeshDict;
}
// * * * * * * * * * * * * * * * * * * * * * * * * * * * * * * * * * * * * * //

convertToMeters 1;

vertices
(
    (  0.229859992583547                -15                  0 )  // 0 v1-z
    (                  1                -15                  0 )  // 1 v2-z
    (                 16                -15                  0 )  // 2 v3-z
    (  0.229859992583547 -0.0615697423464467                  0 )  // 3 v11-z
    (  -14.7701400074165                  0                  0 )  // 4 v0-z
    (                  0                  0                  0 )  // 5 v8-z
    (                  1                  0                  0 )  // 6 v9-z
    (                 16                  0                  0 )  // 7 v4-z
    (  0.229859992583547 0.0627997327731088                  0 )  // 8 v10-z
    (  0.229859992583547                 15                  0 )  // 9 v7-z
    (                  1                 15                  0 )  // 10 v6-z
    (                 16                 15                  0 )  // 11 v5-z
    (  0.229859992583547                -15               0.01 )  // 12 v1+z
    (                  1                -15               0.01 )  // 13 v2+z
    (                 16                -15               0.01 )  // 14 v3+z
    (  0.229859992583547 -0.0615697423464467               0.01 )  // 15 v11+z
    (  -14.7701400074165                  0               0.01 )  // 16 v0+z
    (                  0                  0               0.01 )  // 17 v8+z
    (                  1                  0               0.01 )  // 18 v9+z
    (                 16                  0               0.01 )  // 19 v4+z
    (  0.229859992583547 0.0627997327731088               0.01 )  // 20 v10+z
    (  0.229859992583547                 15               0.01 )  // 21 v7+z
    (                  1                 15               0.01 )  // 22 v6+z
    (                 16                 15               0.01 )  // 23 v5+z
);

edges
(
  arc 16 21 ( -7.27014000741645   12.9903810567666               0.01) // arc-h+z (v0+z v7+z)
  arc 16 12 ( -7.27014000741645  -12.9903810567666               0.01) // arc-l+z (v0+z v1+z)
  spline 17 20                      // uppercurve-1+z (v8+z v10+z)
     (
         ( 2.47234127703777e-06 0.00024165985051748               0.01 )
         ( 9.88934065837554e-06 0.000483319818258848               0.01 )
         ( 2.22509247945202e-05 0.000724980019384882               0.01 )
         ( 3.95569714372601e-05 0.000966640567948765               0.01 )
         ( 6.18073094408311e-05 0.00120830157483514               0.01 )
         ( 8.90017187634151e-05 0.00144996314670429               0.01 )
         ( 0.000121139930469694 0.00169162538494269               0.01 )
         ( 0.000158221626733068 0.00193328838460716               0.01 )
         ( 0.000200246440839158 0.00217495223337801               0.01 )
         ( 0.000247213957189241 0.00241661701050988               0.01 )
         ( 0.000299123711304361 0.00265828278578678               0.01 )
         ( 0.000355975189829993 0.0028999496184801               0.01 )
         ( 0.000417767830541094 0.00314161755630923               0.01 )
         ( 0.000484501022347816 0.00338328663440634               0.01 )
         ( 0.000556174105301066 0.00362495687428255               0.01 )
         ( 0.000632786370599714 0.00386662828280248               0.01 )
         ( 0.000714337060597037 0.00410830085115859               0.01 )
         ( 0.000800825368808433 0.00434997455385309               0.01 )
         ( 0.000892250439919584 0.00459164934768434               0.01 )
         ( 0.000988611369794445 0.00483332517073694               0.01 )
         ( 0.00108990720548463 0.00507500194137976               0.01 )
         ( 0.00119613694523868 0.00531667955726822               0.01 )
         ( 0.00130729953851189 0.00555835789435299               0.01 )
         ( 0.00142339388597679 0.0058000368058956               0.01 )
         ( 0.00154441883953399 0.00604171612149043               0.01 )
         ( 0.00167037320232355 0.00628339564609393               0.01 )
         ( 0.00180125572873674 0.00652507515906092               0.01 )
         ( 0.00193706512442854 0.00676675441318907               0.01 )
         ( 0.00207780004633018 0.00700843313377041               0.01 )
         ( 0.00222345910266269 0.00725011101765201               0.01 )
         ( 0.00237404085295045 0.00749178773230423               0.01 )
         ( 0.00252954380803561 0.0077334629148985               0.01 )
         ( 0.00268996643009256 0.00797513617139329               0.01 )
         ( 0.00285530713264354 0.00821680707563045               0.01 )
         ( 0.00302556428057388 0.00845847516843983               0.01 )
         ( 0.00320073619014855 0.00870013995675493               0.01 )
         ( 0.00338082112902849 0.00894180091273768               0.01 )
         ( 0.00356581731628813 0.0091834574729145               0.01 )
         ( 0.00375572292243248 0.00942510903732175               0.01 )
         ( 0.00395053606941576 0.00966675496866352               0.01 )
         ( 0.00415025483065962 0.0099083945914793               0.01 )
         ( 0.00435487723107231 0.0101500271913236               0.01 )
         ( 0.00456440124706814 0.0103916520139571               0.01 )
         ( 0.0047788248065877 0.0106332682645496               0.01 )
         ( 0.00499814578911811 0.0108748751068952               0.01 )
         ( 0.00522236202571402 0.0111164716626394               0.01 )
         ( 0.00545147129901929 0.0113580570105193               0.01 )
         ( 0.00568547134328867 0.0115996301856164               0.01 )
         ( 0.0059243598444102 0.0118411901786218               0.01 )
         ( 0.00616813443992836 0.0120827359351158               0.01 )
         ( 0.00641679271906714 0.0123242663548598               0.01 )
         ( 0.00667033222275398 0.0125657802911024               0.01 )
         ( 0.00692875044364427 0.0128072765498996               0.01 )
         ( 0.00719204482614577 0.0130487538894484               0.01 )
         ( 0.00746021276644426 0.0132902110194352               0.01 )
         ( 0.00773325161252902 0.0135316466003982               0.01 )
         ( 0.00801115866421925  0.013773059243105               0.01 )
         ( 0.00829393117319066 0.0140144475079447               0.01 )
         ( 0.00858156634300261 0.0142558099043349               0.01 )
         ( 0.00887406132912594 0.0144971448901439               0.01 )
         ( 0.00917141323897092 0.0147384508711288               0.01 )
         ( 0.00947361913191597 0.0149797262003887               0.01 )
         ( 0.00978067601933663  0.015220969177833               0.01 )
         ( 0.0100925808646353 0.0154621780496669               0.01 )
         (  0.010409330583271 0.0157033510078921               0.01 )
         ( 0.0107309220427902 0.0159444861898233               0.01 )
         ( 0.0110573520628575 0.0161855816776218               0.01 )
         ( 0.0113886174152872 0.0164266354978453               0.01 )
         ( 0.0117247148240753 0.0166676456210141               0.01 )
         ( 0.0120656409654319 0.0169086099611937               0.01 )
         ( 0.0124113924678139 0.0171495263755954               0.01 )
         ( 0.0127619659119584 0.0173903926641924               0.01 )
         ( 0.0131173578309166 0.0176312065693541               0.01 )
         ( 0.0134775647100881 0.0178719657754971               0.01 )
         ( 0.0138425829872555 0.0181126679087533               0.01 )
         ( 0.0142124090526199 0.0183533105366559               0.01 )
         ( 0.0145870392488361 0.0185938911678427               0.01 )
         ( 0.0149664698710496 0.0188344072517765               0.01 )
         ( 0.0153506971669323  0.019074856178484               0.01 )
         ( 0.0157397173367201  0.019315235278312               0.01 )
         ( 0.0161335265332506 0.0195555418217009               0.01 )
         ( 0.0165321208620008 0.0197957730189775               0.01 )
         (  0.016935496381126 0.0200359260201641               0.01 )
         ( 0.0173436491014983 0.0202759979148068               0.01 )
         ( 0.0177565749867465 0.0205159857318214               0.01 )
         ( 0.0181742699532957 0.0207558864393574               0.01 )
         ( 0.0185967298704078 0.0209956969446801               0.01 )
         ( 0.0190239505602226 0.0212354140940715               0.01 )
         ( 0.0194559277977986 0.0214750346727485               0.01 )
         ( 0.0198926573111552 0.0217145554047998               0.01 )
         ( 0.0203341347813149 0.0219539729531415               0.01 )
         ( 0.0207803558423457 0.0221932839194902               0.01 )
         ( 0.0212313160814045  0.022432484844355               0.01 )
         ( 0.0216870110387811 0.0226715722070473               0.01 )
         ( 0.0221474362079415 0.0229105424257097               0.01 )
         ( 0.0226125870355732 0.0231493918573622               0.01 )
         ( 0.0230824589216298 0.0233881167979677               0.01 )
         ( 0.0235570472193766 0.0236267134825149               0.01 )
         ( 0.0240363472354367 0.0238651780851199               0.01 )
         ( 0.0245203542298373 0.0241035067191463               0.01 )
         ( 0.0250090634160565  0.024341695437343               0.01 )
         ( 0.0255024699610706 0.0245797402320001               0.01 )
         ( 0.0260005689854023 0.0248176370351236               0.01 )
         ( 0.0265033555631684 0.0250553817186276               0.01 )
         ( 0.0270108247221288 0.0252929700945446               0.01 )
         ( 0.0275229714437358 0.0255303979152539               0.01 )
         ( 0.0280397906631835 0.0257676608737278               0.01 )
         ( 0.0285612772694579 0.0260047546037957               0.01 )
         ( 0.0290874261053876 0.0262416746804262               0.01 )
         ( 0.0296182319676945  0.026478416620026               0.01 )
         ( 0.0301536896070458 0.0267149758807576               0.01 )
         ( 0.0306937937281053 0.0269513478628737               0.01 )
         ( 0.0312385389895863 0.0271875279090693               0.01 )
         ( 0.0317879200043038 0.0274235113048507               0.01 )
         ( 0.0323419313392285 0.0276592932789228               0.01 )
         ( 0.0329005675155401 0.0278948690035918               0.01 )
         ( 0.0334638230086813 0.0281302335951868               0.01 )
         (  0.034031692248413 0.0283653821144966               0.01 )
         (  0.034604169618869 0.0286003095672243               0.01 )
         ( 0.0351812494586115 0.0288350109044581               0.01 )
         ( 0.0357629260606872 0.0290694810231585               0.01 )
         ( 0.0363491936726839 0.0293037147666623               0.01 )
         ( 0.0369400464967871 0.0295377069252024               0.01 )
         ( 0.0375354786898375 0.0297714522364432               0.01 )
         ( 0.0381354843633887 0.0300049453860335               0.01 )
         ( 0.0387400575837656  0.030238181008173               0.01 )
         (  0.039349192372123 0.0304711536861963               0.01 )
         ( 0.0399628827045043 0.0307038579531707               0.01 )
         (  0.040581122511902 0.0309362882925107               0.01 )
         ( 0.0412039056803167 0.0311684391386067               0.01 )
         ( 0.0418312260508185 0.0314003048774684               0.01 )
         (  0.042463077419607 0.0316318798473837               0.01 )
         ( 0.0430994535380734 0.0318631583395915               0.01 )
         ( 0.0437403481128619 0.0320941345989692               0.01 )
         ( 0.0443857548059322 0.0323248028247338               0.01 )
         ( 0.0450356672346216 0.0325551571711577               0.01 )
         (  0.045690078971709 0.0327851917482974               0.01 )
         ( 0.0463489835454778 0.0330149006227364               0.01 )
         ( 0.0470123744397801 0.0332442778183411               0.01 )
         (  0.047680245094101 0.0334733173170296               0.01 )
         ( 0.0483525889036238 0.0337020130595538               0.01 )
         ( 0.0490293992192952  0.033930358946294               0.01 )
         ( 0.0497106693478908 0.0341583488380654               0.01 )
         ( 0.0503963925520816 0.0343859765569379               0.01 )
         ( 0.0510865620505004 0.0346132358870665               0.01 )
         ( 0.0517811710178092 0.0348401205755347               0.01 )
         (  0.052480212584766 0.0350666243332085               0.01 )
         ( 0.0531836798382939 0.0352927408356019               0.01 )
         ( 0.0538915658215481 0.0355184637237537               0.01 )
         ( 0.0546038635339858 0.0357437866051144               0.01 )
         ( 0.0553205659314349 0.0359687030544442               0.01 )
         ( 0.0560416659261635 0.0361932066147208               0.01 )
         ( 0.0567671563869507 0.0364172907980577               0.01 )
         ( 0.0574970301391563 0.0366409490866312               0.01 )
         ( 0.0582312799647924 0.0368641749336182               0.01 )
         ( 0.0589698986025943 0.0370869617641423               0.01 )
         ( 0.0597128787480927 0.0373093029762287               0.01 )
         ( 0.0604602130536855 0.0375311919417682               0.01 )
         ( 0.0612118941287111 0.0377526220074897               0.01 )
         ( 0.0619679145395209 0.0379735864959402               0.01 )
         ( 0.0627282668095529 0.0381940787064728               0.01 )
         ( 0.0634929434194059 0.0384140919162426               0.01 )
         ( 0.0642619368069138 0.0386336193812095               0.01 )
         ( 0.0650352393672202 0.0388526543371481               0.01 )
         ( 0.0658128434528537 0.0390711900006641               0.01 )
         ( 0.0665947413738036 0.0392892195702172               0.01 )
         ( 0.0673809253975959 0.0395067362271505               0.01 )
         ( 0.0681713877493697 0.0397237331367247               0.01 )
         ( 0.0689661206119542 0.0399402034491589               0.01 )
         ( 0.0697651161259462 0.0401561403006761               0.01 )
         (  0.070568366389787 0.0403715368145536               0.01 )
         ( 0.0713758634598416 0.0405863861021781               0.01 )
         ( 0.0721875993504767  0.040800681264105               0.01 )
         ( 0.0730035660341396 0.0410144153911223               0.01 )
         (  0.073823755441438 0.0412275815653175               0.01 )
         ( 0.0746481594612193 0.0414401728611482               0.01 )
         ( 0.0754767699406511  0.041652182346516               0.01 )
         ( 0.0763095786853019 0.0418636030838431               0.01 )
         ( 0.0771465774592219 0.0420744281311512               0.01 )
         ( 0.0779877579850248 0.0422846505431431               0.01 )
         ( 0.0788331119439691 0.0424942633722857               0.01 )
         ( 0.0796826309760409 0.0427032596698951               0.01 )
         ( 0.0805363066800363 0.0429116324872226               0.01 )
         ( 0.0813941306136446  0.043119374876542               0.01 )
         ( 0.0822560942935318 0.0433264798922371               0.01 )
         ( 0.0831221891954242 0.0435329405918903               0.01 )
         ( 0.0839924067541932 0.0437387500373711               0.01 )
         ( 0.0848667383639396 0.0439439012959237               0.01 )
         ( 0.0857451753780789 0.0441483874412549               0.01 )
         ( 0.0866277091094268  0.044352201554621               0.01 )
         ( 0.0875143308302849 0.0445553367259131               0.01 )
         ( 0.0884050317725273 0.0447577860547416               0.01 )
         ( 0.0892998031276874 0.0449595426515186               0.01 )
         ( 0.0901986360470443 0.0451605996385383               0.01 )
         ( 0.0911015216417111 0.0453609501510553               0.01 )
         ( 0.0920084509827227 0.0455605873383598               0.01 )
         ( 0.0929194151011236 0.0457595043648504               0.01 )
         (  0.093834404988057 0.0459576944111032               0.01 )
         (  0.094753411594854  0.046155150674938               0.01 )
         ( 0.0956764258331225 0.0463518663724797               0.01 )
         ( 0.0966034385748378 0.0465478347392168               0.01 )
         ( 0.0975344406524326 0.0467430490310542               0.01 )
         ( 0.0984694228588872 0.0469375025253627               0.01 )
         ( 0.0994083759478213 0.0471311885220223               0.01 )
         (  0.100351290633585 0.0473241003444607               0.01 )
         (   0.10129815759135 0.0475162313406866               0.01 )
         (  0.102248967457205 0.0477075748843167               0.01 )
         (  0.103203710828243 0.0478981243755965               0.01 )
         (  0.104162378262657 0.0480878732424153               0.01 )
         (  0.105124960279837 0.0482768149413138               0.01 )
         (  0.106091447360457 0.0484649429584853               0.01 )
         (  0.107061829946573 0.0486522508107696               0.01 )
         (  0.108036098441717 0.0488387320466388               0.01 )
         (  0.109014243210994 0.0490243802471765               0.01 )
         (  0.109996254581171 0.0492091890270478               0.01 )
         (   0.11098212284078 0.0493931520354618               0.01 )
         (  0.111971838240211 0.0495762629571252               0.01 )
         (  0.112965390991805 0.0497585155131872               0.01 )
         (  0.113962771269957 0.0499399034621754               0.01 )
         (  0.114963969211209 0.0501204206009224               0.01 )
         (   0.11596897491435 0.0503000607654824               0.01 )
         (  0.116977778440511  0.050478817832039               0.01 )
         (  0.117990369813265 0.0506566857178019               0.01 )
         (  0.119006739018727 0.0508336583818941               0.01 )
         (  0.120026876005651  0.051009729826228               0.01 )
         (   0.12105077068553 0.0511848940963713               0.01 )
         (  0.122078412932694 0.0513591452824014               0.01 )
         (  0.123109792584415 0.0515324775197494               0.01 )
         (  0.124144899441003 0.0517048849900315               0.01 )
         (  0.125183723265909 0.0518763619218701               0.01 )
         (  0.126226253785823 0.0520469025917018               0.01 )
         (  0.127272480690782 0.0522165013245745               0.01 )
         (  0.128322393634265 0.0523851524949316               0.01 )
         (    0.1293759822333 0.0525528505273833               0.01 )
         (  0.130433236068564 0.0527195898974668               0.01 )
         (  0.131494144684489 0.0528853651323915               0.01 )
         (  0.132558697589362 0.0530501708117735               0.01 )
         (   0.13362688425543 0.0532140015683546               0.01 )
         (  0.134698694119006 0.0533768520887096               0.01 )
         (   0.13577411658057 0.0535387171139395               0.01 )
         (  0.136853141004876 0.0536995914403503               0.01 )
         (   0.13793575672106  0.053859469920119               0.01 )
         (  0.139021953022738 0.0540183474619445               0.01 )
         (  0.140111719168118 0.0541762190316851               0.01 )
         (  0.141205044380106 0.0543330796529807               0.01 )
         (  0.142301917846409 0.0544889244078617               0.01 )
         (  0.143402328719645 0.0546437484373416               0.01 )
         (  0.144506266117449 0.0547975469419961               0.01 )
         (  0.145613719122581 0.0549503151825269               0.01 )
         (  0.146724676783034 0.0551020484803097               0.01 )
         (  0.147839128112142 0.0552527422179281               0.01 )
         (  0.148957062088689 0.0554023918396911               0.01 )
         (  0.150078467657017 0.0555509928521358               0.01 )
         (  0.151203333727139 0.0556985408245143               0.01 )
         (  0.152331649174841 0.0558450313892649               0.01 )
         (  0.153463402841801 0.0559904602424676               0.01 )
         (  0.154598583535695 0.0561348231442834               0.01 )
         (  0.155737180030304  0.056278115919378               0.01 )
         (  0.156879181065633 0.0564203344573294               0.01 )
         (  0.158024575348017  0.056561474713019               0.01 )
         (  0.159173351550234 0.0567015327070066               0.01 )
         (  0.160325498311615 0.0568405045258898               0.01 )
         (  0.161481004238162 0.0569783863226456               0.01 )
         (  0.162639857902654  0.057115174316957               0.01 )
         (  0.163802047844764 0.0572508647955221               0.01 )
         (  0.164967562571171 0.0573854541123473               0.01 )
         (  0.166136390555676 0.0575189386890235               0.01 )
         (   0.16730852023931  0.057651315014986               0.01 )
         (  0.168483940030457 0.0577825796477573               0.01 )
         (  0.169662638304959 0.0579127292131738               0.01 )
         (  0.170844603406241  0.058041760405595               0.01 )
         (  0.172029823645416 0.0581696699880968               0.01 )
         (   0.17321828730141 0.0582964547926474               0.01 )
         (  0.174409982621072 0.0584221117202667               0.01 )
         (  0.175604897819291 0.0585466377411688               0.01 )
         (  0.176803021079115 0.0586700298948879               0.01 )
         (  0.178004340551866 0.0587922852903872               0.01 )
         (  0.179208844357256 0.0589134011061513               0.01 )
         (  0.180416520583507 0.0590333745902615               0.01 )
         (   0.18162735728747 0.0591522030604549               0.01 )
         (  0.182841342494736 0.0592698839041661               0.01 )
         (  0.184058464199764 0.0593864145785526               0.01 )
         (  0.185278710365992 0.0595017926105039               0.01 )
         (  0.186502068925961 0.0596160155966336               0.01 )
         (  0.187728527781431 0.0597290812032546               0.01 )
         (  0.188958074803502 0.0598409871663388               0.01 )
         (  0.190190697832736 0.0599517312914593               0.01 )
         (  0.191426384679272 0.0600613114537169               0.01 )
         (  0.192665123122954 0.0601697255976501               0.01 )
         (  0.193906900913443  0.060276971737129               0.01 )
         (  0.195151705770347 0.0603830479552324               0.01 )
         (  0.196399525383334 0.0604879524041098               0.01 )
         (  0.197650347412262 0.0605916833048267               0.01 )
         (  0.198904159487295  0.060694238947194               0.01 )
         (  0.200160949209028 0.0607956176895822               0.01 )
         (  0.201420704148607 0.0608958179587191               0.01 )
         (  0.202683411847857 0.0609948382494724               0.01 )
         (  0.203949059819399 0.0610926771246169               0.01 )
         (   0.20521763554678 0.0611893332145855               0.01 )
         (  0.206489126484591 0.0612848052172063               0.01 )
         (  0.207763520058592 0.0613790918974232               0.01 )
         (  0.209040803665842 0.0614721920870025               0.01 )
         (  0.210320964674817 0.0615641046842242               0.01 )
         (  0.211603990425535 0.0616548286535582               0.01 )
         (  0.212889868229688 0.0617443630253268               0.01 )
         (  0.214178585370761 0.0618327068953521               0.01 )
         (  0.215470129104158 0.0619198594245895               0.01 )
         (  0.216764486657333 0.0620058198387461               0.01 )
         (  0.218061645229911 0.0620905874278872               0.01 )
         (  0.219361591993817 0.0621741615460263               0.01 )
         (  0.220664314093404 0.0622565416107038               0.01 )
         (  0.221969798645576 0.0623377271025509               0.01 )
         (  0.223278032739921 0.0624177175648407               0.01 )
         (  0.224589003438833 0.0624965126030258               0.01 )
         (  0.225902697777645 0.0625741118842639               0.01 )
         (  0.227219102764754  0.062650515136929               0.01 )
         (   0.22853820538175 0.0627257221501124               0.01 )

     )

  spline 17 15                      // lowercurve-1+z (v8+z v11+z)
     (
         ( 2.47234127703777e-06 -0.000248089937284082               0.01 )
         ( 9.88934065837554e-06 -0.000496181934962833               0.01 )
         ( 2.22509247945202e-05 -0.000744278051173703               0.01 )
         ( 3.95569714372601e-05 -0.000992380339559235               0.01 )
         ( 6.18073094408311e-05 -0.00124049084701334               0.01 )
         ( 8.90017187634151e-05 -0.00148861161143412               0.01 )
         ( 0.000121139930469694 -0.00173674465948484               0.01 )
         ( 0.000158221626733068 -0.00198489200435056               0.01 )
         ( 0.000200246440839158 -0.00223305564350644               0.01 )
         ( 0.000247213957189241 -0.0024812375564867               0.01 )
         ( 0.000299123711304361 -0.00272943970266121               0.01 )
         ( 0.000355975189829993 -0.00297766401901891               0.01 )
         ( 0.000417767830541094 -0.00322591241795823               0.01 )
         ( 0.000484501022347816 -0.00347418678508623               0.01 )
         ( 0.000556174105301066 -0.0037224889770244               0.01 )
         ( 0.000632786370599714 -0.00397082081922834               0.01 )
         ( 0.000714337060597037 -0.00421918410381318               0.01 )
         ( 0.000800825368808433 -0.00446758058739301               0.01 )
         ( 0.000892250439919584 -0.00471601198893171               0.01 )
         ( 0.000988611369794445 -0.0049644799876044               0.01 )
         ( 0.00108990720548463 -0.00521298622067482               0.01 )
         ( 0.00119613694523868 -0.00546153228138473               0.01 )
         ( 0.00130729953851189 -0.00571011971685836               0.01 )
         ( 0.00142339388597679 -0.00595875002602253               0.01 )
         ( 0.00154441883953399 -0.00620742465754239               0.01 )
         ( 0.00167037320232355 -0.00645614500777411               0.01 )
         ( 0.00180125572873674 -0.00670491241873472               0.01 )
         ( 0.00193706512442854 -0.00695372817609041               0.01 )
         ( 0.00207780004633018 -0.00720259350716289               0.01 )
         ( 0.00222345910266269 -0.00745150957895596               0.01 )
         ( 0.00237404085295045 -0.0077004774962014               0.01 )
         ( 0.00252954380803561 -0.00794949829942622               0.01 )
         ( 0.00268996643009256 -0.00819857296304058               0.01 )
         ( 0.00285530713264354 -0.00844770239344863               0.01 )
         ( 0.00302556428057388 -0.00869688742718093               0.01 )
         ( 0.00320073619014855 -0.00894612882905117               0.01 )
         ( 0.00338082112902849 -0.00919542729033586               0.01 )
         ( 0.00356581731628813 -0.00944478342697956               0.01 )
         ( 0.00375572292243248 -0.00969419777782389               0.01 )
         ( 0.00395053606941576 -0.00994367080286375               0.01 )
         ( 0.00415025483065962 -0.0101932028815287               0.01 )
         ( 0.00435487723107231 -0.0104427943109918               0.01 )
         ( 0.00456440124706814 -0.0106924453045055               0.01 )
         ( 0.0047788248065877 -0.0109421559897664               0.01 )
         ( 0.00499814578911811 -0.0111919264073076               0.01 )
         ( 0.00522236202571402 -0.0114417565089206               0.01 )
         ( 0.00545147129901929 -0.0116916461561073               0.01 )
         ( 0.00568547134328867 -0.0119415951185616               0.01 )
         ( 0.0059243598444102 -0.0121916030726819               0.01 )
         ( 0.00616813443992836 -0.0124416696001152               0.01 )
         ( 0.00641679271906714 -0.0126917941863324               0.01 )
         ( 0.00667033222275398 -0.0129419762192365               0.01 )
         ( 0.00692875044364427 -0.013192214987803               0.01 )
         ( 0.00719204482614577 -0.0134425096807536               0.01 )
         ( 0.00746021276644426 -0.0136928593852639               0.01 )
         ( 0.00773325161252902 -0.0139432630857048               0.01 )
         ( 0.00801115866421925 -0.0141937196624189               0.01 )
         ( 0.00829393117319066 -0.0144442278905317               0.01 )
         ( 0.00858156634300261 -0.0146947864387977               0.01 )
         ( 0.00887406132912594 -0.0149453938684837               0.01 )
         ( 0.00917141323897092 -0.0151960486322869               0.01 )
         ( 0.00947361913191597 -0.0154467490732903               0.01 )
         ( 0.00978067601933663 -0.0156974934239553               0.01 )
         ( 0.0100925808646353 -0.0159482798051511               0.01 )