/*--------------------------------*- C++ -*----------------------------------*\
  =========                 |
  \\      /  F ield         | OpenFOAM: The Open Source CFD Toolbox
   \\    /   O peration     | Website:  https://openfoam.org
    \\  /    A nd           | Version:  7
     \\/     M anipulation  |
\*---------------------------------------------------------------------------*/
FoamFile
{
    version     2.0;
    format      ascii;
    class       polyBoundaryMesh;
    location    "constant/polyMesh";
    object      boundary;
}
// * * * * * * * * * * * * * * * * * * * * * * * * * * * * * * * * * * * * * //

26
(
    inlet-l
    {
        type            patch;
        nFaces          106;
        startFace       45794;
    }
    airfoil-l1
    {
        type            wall;
        inGroups        List<word> 1(wall);
        nFaces          107;
        startFace       45900;
    }
    empty-1
    {
        type            empty;
        inGroups        List<word> 1(empty);
        nFaces          19897;
        startFace       46007;
    }
    empty-2
    {
        type            empty;
        inGroups        List<word> 1(empty);
        nFaces          19897;
        startFace       65904;
    }
    wall-l1
    {
        type            wall;
        inGroups        List<word> 1(wall);
        nFaces          0;
        startFace       85801;
    }
    airfoil-l2
    {
        type            wall;
        inGroups        List<word> 1(wall);
        nFaces          1;
        startFace       85801;
    }
    empty-3
    {
        type            empty;
        inGroups        List<word> 1(empty);
        nFaces          179;
        startFace       85802;
    }
    empty-4
    {
        type            empty;
        inGroups        List<word> 1(empty);
        nFaces          179;
        startFace       85981;
    }
    wall-l2
    {
        type            wall;
        inGroups        List<word> 1(wall);
        nFaces          0;
        startFace       86160;
    }
    outlet-l
    {
        type            patch;
        nFaces          0;
        startFace       86160;
    }
    empty-5
    {
        type            empty;
        inGroups        List<word> 1(empty);
        nFaces          0;
        startFace       86160;
    }
    empty-6
    {
        type            empty;
        inGroups        List<word> 1(empty);
        nFaces          0;
        startFace       86160;
    }
    outlet-h
    {
        type            patch;
        nFaces          0;
        startFace       86160;
    }
    wall-h2
    {
        type            wall;
        inGroups        List<word> 1(wall);
        nFaces          0;
        startFace       86160;
    }
    empty-7
    {
        type            empty;
        inGroups        List<word> 1(empty);
        nFaces          0;
        startFace       86160;
    }
    empty-8
    {
        type            empty;
        inGroups        List<word> 1(empty);
        nFaces          0;
        startFace       86160;
    }
    airfoil-h2
    {
        type            wall;
        inGroups        List<word> 1(wall);
        nFaces          0;
        startFace       86160;
    }
    wall-h1
    {
        type            wall;
        inGroups        List<word> 1(wall);
        nFaces          0;
        startFace       86160;
    }
    empty-9
    {
        type            empty;
        inGroups        List<word> 1(empty);
        nFaces          0;
        startFace       86160;
    }
    empty-10
    {
        type            empty;
        inGroups        List<word> 1(empty);
        nFaces          0;
        startFace       86160;
    }
    inlet-h
    {
        type            patch;
        nFaces          16;
        startFace       86160;
    }
    airfoil-h1
    {
        type            wall;
        inGroups        List<word> 1(wall);
        nFaces          16;
        startFace       86176;
    }
    empty-11
    {
        type            empty;
        inGroups        List<word> 1(empty);
        nFaces          2976;
        startFace       86192;
    }
    empty-12
    {
        type            empty;
        inGroups        List<word> 1(empty);
        nFaces          2976;
        startFace       89168;
    }
    procBoundary0to1
    {
        type            processor;
        inGroups        List<word> 1(processor);
        nFaces          188;
        startFace       92144;
        matchTolerance  0.0001;
        transform       unknown;
        myProcNo        0;
        neighbProcNo    1;
    }
    procBoundary0to3
    {
        type            processor;
        inGroups        List<word> 1(processor);
        nFaces          186;
        startFace       92332;
        matchTolerance  0.0001;
        transform       unknown;
        myProcNo        0;
        neighbProcNo    3;
    }
)

// ************************************************************************* //
