/*--------------------------------*- C++ -*----------------------------------*\
  =========                 |
  \\      /  F ield         | OpenFOAM: The Open Source CFD Toolbox
   \\    /   O peration     | Website:  https://openfoam.org
    \\  /    A nd           | Version:  7
     \\/     M anipulation  |
\*---------------------------------------------------------------------------*/
FoamFile
{
    version     2.0;
    format      ascii;
    class       polyBoundaryMesh;
    location    "constant/polyMesh";
    object      boundary;
}
// * * * * * * * * * * * * * * * * * * * * * * * * * * * * * * * * * * * * * //

26
(
    inlet-l
    {
        type            patch;
        nFaces          0;
        startFace       45818;
    }
    airfoil-l1
    {
        type            wall;
        inGroups        List<word> 1(wall);
        nFaces          0;
        startFace       45818;
    }
    empty-1
    {
        type            empty;
        inGroups        List<word> 1(empty);
        nFaces          0;
        startFace       45818;
    }
    empty-2
    {
        type            empty;
        inGroups        List<word> 1(empty);
        nFaces          0;
        startFace       45818;
    }
    wall-l1
    {
        type            wall;
        inGroups        List<word> 1(wall);
        nFaces          0;
        startFace       45818;
    }
    airfoil-l2
    {
        type            wall;
        inGroups        List<word> 1(wall);
        nFaces          0;
        startFace       45818;
    }
    empty-3
    {
        type            empty;
        inGroups        List<word> 1(empty);
        nFaces          0;
        startFace       45818;
    }
    empty-4
    {
        type            empty;
        inGroups        List<word> 1(empty);
        nFaces          0;
        startFace       45818;
    }
    wall-l2
    {
        type            wall;
        inGroups        List<word> 1(wall);
        nFaces          0;
        startFace       45818;
    }
    outlet-l
    {
        type            patch;
        nFaces          0;
        startFace       45818;
    }
    empty-5
    {
        type            empty;
        inGroups        List<word> 1(empty);
        nFaces          0;
        startFace       45818;
    }
    empty-6
    {
        type            empty;
        inGroups        List<word> 1(empty);
        nFaces          0;
        startFace       45818;
    }
    outlet-h
    {
        type            patch;
        nFaces          0;
        startFace       45818;
    }
    wall-h2
    {
        type            wall;
        inGroups        List<word> 1(wall);
        nFaces          0;
        startFace       45818;
    }
    empty-7
    {
        type            empty;
        inGroups        List<word> 1(empty);
        nFaces          0;
        startFace       45818;
    }
    empty-8
    {
        type            empty;
        inGroups        List<word> 1(empty);
        nFaces          0;
        startFace       45818;
    }
    airfoil-h2
    {
        type            wall;
        inGroups        List<word> 1(wall);
        nFaces          33;
        startFace       45818;
    }
    wall-h1
    {
        type            wall;
        inGroups        List<word> 1(wall);
        nFaces          33;
        startFace       45851;
    }
    empty-9
    {
        type            empty;
        inGroups        List<word> 1(empty);
        nFaces          6138;
        startFace       45884;
    }
    empty-10
    {
        type            empty;
        inGroups        List<word> 1(empty);
        nFaces          6138;
        startFace       52022;
    }
    inlet-h
    {
        type            patch;
        nFaces          91;
        startFace       58160;
    }
    airfoil-h1
    {
        type            wall;
        inGroups        List<word> 1(wall);
        nFaces          91;
        startFace       58251;
    }
    empty-11
    {
        type            empty;
        inGroups        List<word> 1(empty);
        nFaces          16926;
        startFace       58342;
    }
    empty-12
    {
        type            empty;
        inGroups        List<word> 1(empty);
        nFaces          16926;
        startFace       75268;
    }
    procBoundary3to0
    {
        type            processor;
        inGroups        List<word> 1(processor);
        nFaces          186;
        startFace       92194;
        matchTolerance  0.0001;
        transform       unknown;
        myProcNo        3;
        neighbProcNo    0;
    }
    procBoundary3to2
    {
        type            processor;
        inGroups        List<word> 1(processor);
        nFaces          186;
        startFace       92380;
        matchTolerance  0.0001;
        transform       unknown;
        myProcNo        3;
        neighbProcNo    2;
    }
)

// ************************************************************************* //
