/*--------------------------------*- C++ -*----------------------------------*\
| =========                 |                                                 |
| \\      /  F ield         | OpenFOAM: The Open Source CFD Toolbox           |
|  \\    /   O peration     | Version:  2.3.0                                 |
|   \\  /    A nd           | Web:      www.OpenFOAM.org                      |
|    \\/     M anipulation  |                                                 |
\*---------------------------------------------------------------------------*/
FoamFile
{
    version     2.0;
    format      ascii;
    class       dictionary;
    object      blockMeshDict;
}
// * * * * * * * * * * * * * * * * * * * * * * * * * * * * * * * * * * * * * //

convertToMeters 1;

vertices
(
    (  0.186502068925961                -15                  0 )  // 0 v1-z
    (                  1                -15                  0 )  // 1 v2-z
    (                 16                -15                  0 )  // 2 v3-z
    (  0.186502068925961 -0.0521081555000837                  0 )  // 3 v11-z
    (   -14.813497931074                  0                  0 )  // 4 v0-z
    (                  0                  0                  0 )  // 5 v8-z
    (                  1                  0                  0 )  // 6 v9-z
    (                 16                  0                  0 )  // 7 v4-z
    (  0.186502068925961 0.0464133550863303                  0 )  // 8 v10-z
    (  0.186502068925961                 15                  0 )  // 9 v7-z
    (                  1                 15                  0 )  // 10 v6-z
    (                 16                 15                  0 )  // 11 v5-z
    (  0.186502068925961                -15               0.01 )  // 12 v1+z
    (                  1                -15               0.01 )  // 13 v2+z
    (                 16                -15               0.01 )  // 14 v3+z
    (  0.186502068925961 -0.0521081555000837               0.01 )  // 15 v11+z
    (   -14.813497931074                  0               0.01 )  // 16 v0+z
    (                  0                  0               0.01 )  // 17 v8+z
    (                  1                  0               0.01 )  // 18 v9+z
    (                 16                  0               0.01 )  // 19 v4+z
    (  0.186502068925961 0.0464133550863303               0.01 )  // 20 v10+z
    (  0.186502068925961                 15               0.01 )  // 21 v7+z
    (                  1                 15               0.01 )  // 22 v6+z
    (                 16                 15               0.01 )  // 23 v5+z
);

edges
(
  arc 16 21 ( -7.31349793107404   12.9903810567666               0.01) // arc-h+z (v0+z v7+z)
  arc 16 12 ( -7.31349793107404  -12.9903810567666               0.01) // arc-l+z (v0+z v1+z)
  spline 17 20                      // uppercurve-1+z (v8+z v10+z)
     (
         ( 2.47234127703777e-06 0.000242114972836252               0.01 )
         ( 9.88934065837554e-06 0.000484221159479568               0.01 )
         ( 2.22509247945202e-05 0.000726309774856891               0.01 )
         ( 3.95569714372601e-05 0.000968372036152981               0.01 )
         ( 6.18073094408311e-05 0.00121039916393066               0.01 )
         ( 8.90017187634151e-05 0.0014523823832544               0.01 )
         ( 0.000121139930469694 0.00169431292481786               0.01 )
         ( 0.000158221626733068 0.00193618202606204               0.01 )
         ( 0.000200246440839158 0.00217798093229884               0.01 )
         ( 0.000247213957189241 0.00241970089782815               0.01 )
         ( 0.000299123711304361 0.00266133318705422               0.01 )
         ( 0.000355975189829993 0.00290286907559978               0.01 )
         ( 0.000417767830541094 0.00314429985141672               0.01 )
         ( 0.000484501022347816 0.00338561681589432               0.01 )
         ( 0.000556174105301066 0.00362681128496185               0.01 )
         ( 0.000632786370599714 0.00386787459019163               0.01 )
         ( 0.000714337060597037 0.00410879807989373               0.01 )
         ( 0.000800825368808433 0.00434957312020916               0.01 )
         ( 0.000892250439919584 0.00459019109619828               0.01 )
         ( 0.000988611369794445 0.00483064341292259               0.01 )
         ( 0.00108990720548463 0.00507092149652402               0.01 )
         ( 0.00119613694523868 0.00531101679529716               0.01 )
         ( 0.00130729953851189 0.00555092078075622               0.01 )
         ( 0.00142339388597679 0.00579062494869645               0.01 )
         ( 0.00154441883953399 0.00603012082024915               0.01 )
         ( 0.00167037320232355 0.0062693999429304               0.01 )
         ( 0.00180125572873674 0.00650845389168295               0.01 )
         ( 0.00193706512442854 0.00674727426991157               0.01 )
         ( 0.00207780004633018 0.00698585271051055               0.01 )
         ( 0.00222345910266269 0.00722418087688458               0.01 )
         ( 0.00237404085295045 0.00746225046396111               0.01 )
         ( 0.00252954380803561 0.00770005319919551               0.01 )
         ( 0.00268996643009256 0.00793758084356727               0.01 )
         ( 0.00285530713264354 0.00817482519256869               0.01 )
         ( 0.00302556428057388 0.0084117780771838               0.01 )
         ( 0.00320073619014855 0.00864843136485938               0.01 )
         ( 0.00338082112902849 0.00888477696046589               0.01 )
         ( 0.00356581731628813 0.00912080680725001               0.01 )
         ( 0.00375572292243248 0.00935651288777622               0.01 )
         ( 0.00395053606941576 0.00959188722486002               0.01 )
         ( 0.00415025483065962 0.00982692188248982               0.01 )
         ( 0.00435487723107231 0.0100616089667391               0.01 )
         ( 0.00456440124706814 0.0102959406266678               0.01 )
         ( 0.0047788248065877 0.0105299090552136               0.01 )
         ( 0.00499814578911811 0.0107635064900709               0.01 )
         ( 0.00522236202571402 0.0109967252145597               0.01 )
         ( 0.00545147129901929 0.0112295575584835               0.01 )
         ( 0.00568547134328867 0.0114619958989735               0.01 )
         ( 0.0059243598444102 0.0116940326613237               0.01 )
         ( 0.00616813443992836 0.0119256603198119               0.01 )
         ( 0.00641679271906714 0.0121568713985096               0.01 )
         ( 0.00667033222275398 0.0123876584720793               0.01 )
         ( 0.00692875044364427 0.0126180141665589               0.01 )
         ( 0.00719204482614577 0.0128479311601337               0.01 )
         ( 0.00746021276644426 0.0130774021838956               0.01 )
         ( 0.00773325161252902 0.0133064200225886               0.01 )
         ( 0.00801115866421925 0.0135349775153418               0.01 )
         ( 0.00829393117319066  0.013763067556388               0.01 )
         ( 0.00858156634300261 0.0139906830957699               0.01 )
         ( 0.00887406132912594 0.0142178171400314               0.01 )
         ( 0.00917141323897092 0.0144444627528957               0.01 )
         ( 0.00947361913191597 0.0146706130559291               0.01 )
         ( 0.00978067601933663 0.0148962612291903               0.01 )
         ( 0.0100925808646353 0.0151214005118659               0.01 )
         (  0.010409330583271 0.0153460242028912               0.01 )
         ( 0.0107309220427902 0.0155701256615562               0.01 )
         ( 0.0110573520628575 0.0157936983080965               0.01 )
         ( 0.0113886174152872 0.0160167356242707               0.01 )
         ( 0.0117247148240753  0.016239231153921               0.01 )
         ( 0.0120656409654319 0.0164611785035199               0.01 )
         ( 0.0124113924678139 0.0166825713427013               0.01 )
         ( 0.0127619659119584 0.0169034034047764               0.01 )
         ( 0.0131173578309166 0.0171236684872339               0.01 )
         ( 0.0134775647100881 0.0173433604522245               0.01 )
         ( 0.0138425829872555 0.0175624732270307               0.01 )
         ( 0.0142124090526199 0.0177810008045201               0.01 )
         ( 0.0145870392488361 0.0179989372435826               0.01 )
         ( 0.0149664698710496 0.0182162766695529               0.01 )
         ( 0.0153506971669323 0.0184330132746157               0.01 )
         ( 0.0157397173367201 0.0186491413181961               0.01 )
         ( 0.0161335265332506 0.0188646551273331               0.01 )
         ( 0.0165321208620008  0.019079549097037               0.01 )
         (  0.016935496381126 0.0192938176906314               0.01 )
         ( 0.0173436491014983 0.0195074554400778               0.01 )
         ( 0.0177565749867465 0.0197204569462848               0.01 )
         ( 0.0181742699532957 0.0199328168794005               0.01 )
         ( 0.0185967298704078  0.020144529979089               0.01 )
         ( 0.0190239505602226 0.0203555910547899               0.01 )
         ( 0.0194559277977986 0.0205659949859618               0.01 )
         ( 0.0198926573111552 0.0207757367223093               0.01 )
         ( 0.0203341347813149 0.0209848112839936               0.01 )
         ( 0.0207803558423457 0.0211932137618261               0.01 )
         ( 0.0212313160814045 0.0214009393174467               0.01 )
         ( 0.0216870110387811 0.0216079831834842               0.01 )
         ( 0.0221474362079415 0.0218143406637015               0.01 )
         ( 0.0226125870355732 0.0220200071331234               0.01 )
         ( 0.0230824589216298 0.0222249780381484               0.01 )
         ( 0.0235570472193766 0.0224292488966445               0.01 )
         ( 0.0240363472354367 0.0226328152980275               0.01 )
         ( 0.0245203542298373 0.0228356729033238               0.01 )
         ( 0.0250090634160565 0.0230378174452168               0.01 )
         ( 0.0255024699610706 0.0232392447280768               0.01 )
         ( 0.0260005689854023 0.0234399506279745               0.01 )
         ( 0.0265033555631684 0.0236399310926786               0.01 )
         ( 0.0270108247221288 0.0238391821416372               0.01 )
         ( 0.0275229714437358 0.0240376998659429               0.01 )
         ( 0.0280397906631835 0.0242354804282822               0.01 )
         ( 0.0285612772694579 0.0244325200628686               0.01 )
         ( 0.0290874261053876 0.0246288150753601               0.01 )
         ( 0.0296182319676945 0.0248243618427606               0.01 )
         ( 0.0301536896070458 0.0250191568133059               0.01 )
         ( 0.0306937937281053 0.0252131965063338               0.01 )
         ( 0.0312385389895863 0.0254064775121387               0.01 )
         ( 0.0317879200043038 0.0255989964918107               0.01 )
         ( 0.0323419313392285 0.0257907501770598               0.01 )
         ( 0.0329005675155401 0.0259817353700238               0.01 )
         ( 0.0334638230086813 0.0261719489430624               0.01 )
         (  0.034031692248413 0.0263613878385352               0.01 )
         (  0.034604169618869 0.0265500490685652               0.01 )
         ( 0.0351812494586115 0.0267379297147876               0.01 )
         ( 0.0357629260606872 0.0269250269280836               0.01 )
         ( 0.0363491936726839 0.0271113379283003               0.01 )
         ( 0.0369400464967871 0.0272968600039553               0.01 )
         ( 0.0375354786898375 0.0274815905119279               0.01 )
         ( 0.0381354843633887 0.0276655268771355               0.01 )
         ( 0.0387400575837656 0.0278486665921968               0.01 )
         (  0.039349192372123 0.0280310072170803               0.01 )
         ( 0.0399628827045043 0.0282125463787395               0.01 )
         (  0.040581122511902 0.0283932817707352               0.01 )
         ( 0.0412039056803167 0.0285732111528436               0.01 )
         ( 0.0418312260508185 0.0287523323506513               0.01 )
         (  0.042463077419607 0.0289306432551381               0.01 )
         ( 0.0430994535380734 0.0291081418222462               0.01 )
         ( 0.0437403481128619 0.0292848260724367               0.01 )
         ( 0.0443857548059322 0.0294606940902346               0.01 )
         ( 0.0450356672346216 0.0296357440237602               0.01 )
         (  0.045690078971709 0.0298099740842493               0.01 )
         ( 0.0463489835454778 0.0299833825455616               0.01 )
         ( 0.0470123744397801 0.0301559677436765               0.01 )
         (  0.047680245094101 0.0303277280761782               0.01 )
         ( 0.0483525889036238 0.0304986620017298               0.01 )
         ( 0.0490293992192952 0.0306687680395347               0.01 )
         ( 0.0497106693478908 0.0308380447687894               0.01 )
         ( 0.0503963925520816 0.0310064908281235               0.01 )
         ( 0.0510865620505004 0.0311741049150307               0.01 )
         ( 0.0517811710178092 0.0313408857852889               0.01 )
         (  0.052480212584766 0.0315068322523704               0.01 )
         ( 0.0531836798382939 0.0316719431868425               0.01 )
         ( 0.0538915658215481 0.0318362175157581               0.01 )
         ( 0.0546038635339858 0.0319996542220375               0.01 )
         ( 0.0553205659314349 0.0321622523438409               0.01 )
         ( 0.0560416659261635 0.0323240109739315               0.01 )
         ( 0.0567671563869507  0.032484929259031               0.01 )
         ( 0.0574970301391563 0.0326450063991657               0.01 )
         ( 0.0582312799647924 0.0328042416470054               0.01 )
         ( 0.0589698986025943 0.0329626343071933               0.01 )
         ( 0.0597128787480927 0.0331201837356691               0.01 )
         ( 0.0604602130536855 0.0332768893389845               0.01 )
         ( 0.0612118941287111 0.0334327505736112               0.01 )
         ( 0.0619679145395209 0.0335877669452424               0.01 )
         ( 0.0627282668095529 0.0337419380080874               0.01 )
         ( 0.0634929434194059 0.0338952633641596               0.01 )
         ( 0.0642619368069138  0.034047742662559               0.01 )
         ( 0.0650352393672202 0.0341993755987483               0.01 )
         ( 0.0658128434528537 0.0343501619138232               0.01 )
         ( 0.0665947413738036 0.0345001013937777               0.01 )
         ( 0.0673809253975959 0.0346491938687644               0.01 )
         ( 0.0681713877493697 0.0347974392123494               0.01 )
         ( 0.0689661206119542 0.0349448373407633               0.01 )
         ( 0.0697651161259462 0.0350913882121471               0.01 )
         (  0.070568366389787 0.0352370918257948               0.01 )
         ( 0.0713758634598416 0.0353819482213919               0.01 )
         ( 0.0721875993504767   0.03552595747825               0.01 )
         ( 0.0730035660341396  0.035669119714539               0.01 )
         (  0.073823755441438 0.0358114350865155               0.01 )
         ( 0.0746481594612193  0.035952903787749               0.01 )
         ( 0.0754767699406511 0.0360935260483456               0.01 )
         ( 0.0763095786853019  0.036233302134169               0.01 )
         ( 0.0771465774592219 0.0363722323460605               0.01 )
         ( 0.0779877579850248 0.0365103170190566               0.01 )
         ( 0.0788331119439691 0.0366475565216059               0.01 )
         ( 0.0796826309760409 0.0367839512547841               0.01 )
         ( 0.0805363066800363  0.036919501651509               0.01 )
         ( 0.0813941306136446 0.0370542081757545               0.01 )
         ( 0.0822560942935318 0.0371880713217645               0.01 )
         ( 0.0831221891954242 0.0373210916132666               0.01 )
         ( 0.0839924067541932 0.0374532696026865               0.01 )
         ( 0.0848667383639396 0.0375846058703621               0.01 )
         ( 0.0857451753780789 0.0377151010237597               0.01 )
         ( 0.0866277091094268 0.0378447556966901               0.01 )
         ( 0.0875143308302849 0.0379735705485264               0.01 )
         ( 0.0884050317725273 0.0381015462634238               0.01 )
         ( 0.0892998031276874 0.0382286835495406               0.01 )
         ( 0.0901986360470443 0.0383549831382622               0.01 )
         ( 0.0911015216417111 0.0384804457834266               0.01 )
         ( 0.0920084509827227 0.0386050722605529               0.01 )
         ( 0.0929194151011236 0.0387288633660734               0.01 )
         (  0.093834404988057 0.0388518199165676               0.01 )
         (  0.094753411594854 0.0389739427480009               0.01 )
         ( 0.0956764258331225 0.0390952327149657               0.01 )
         ( 0.0966034385748378 0.0392156906899284               0.01 )
         ( 0.0975344406524326  0.039335317562478               0.01 )
         ( 0.0984694228588872 0.0394541142385816               0.01 )
         ( 0.0994083759478213  0.039572081639843               0.01 )
         (  0.100351290633585 0.0396892207027674               0.01 )
         (   0.10129815759135   0.03980553237803               0.01 )
         (  0.102248967457205 0.0399210176297513               0.01 )
         (  0.103203710828243 0.0400356774347775               0.01 )
         (  0.104162378262657 0.0401495127819668               0.01 )
         (  0.105124960279837 0.0402625246714821               0.01 )
         (  0.106091447360457 0.0403747141140896               0.01 )
         (  0.107061829946573  0.040486082130465               0.01 )
         (  0.108036098441717 0.0405966297505055               0.01 )
         (  0.109014243210994 0.0407063580126495               0.01 )
         (  0.109996254581171 0.0408152679632034               0.01 )
         (   0.11098212284078 0.0409233606556761               0.01 )
         (  0.111971838240211 0.0410306371501209               0.01 )
         (  0.112965390991805 0.0411370985124861               0.01 )
         (  0.113962771269957 0.0412427458139726               0.01 )
         (  0.114963969211209 0.0413475801304013               0.01 )
         (   0.11596897491435 0.0414516025415877               0.01 )
         (  0.116977778440511 0.0415548141307266               0.01 )
         (  0.117990369813265 0.0416572159837845               0.01 )
         (  0.119006739018727 0.0417588091889026               0.01 )
         (  0.120026876005651 0.0418595948358078               0.01 )
         (   0.12105077068553 0.0419595740152343               0.01 )
         (  0.122078412932694 0.0420587478183546               0.01 )
         (  0.123109792584415   0.04215711733622               0.01 )
         (  0.124144899441003 0.0422546836592124               0.01 )
         (  0.125183723265909 0.0423514478765051               0.01 )
         (  0.126226253785823 0.0424474110755346               0.01 )
         (  0.127272480690782 0.0425425743414837               0.01 )
         (  0.128322393634265 0.0426369387567739               0.01 )
         (    0.1293759822333 0.0427305054005705               0.01 )
         (  0.130433236068564 0.0428232753482973               0.01 )
         (  0.131494144684489 0.0429152496711638               0.01 )
         (  0.132558697589362 0.0430064294357026               0.01 )
         (   0.13362688425543 0.0430968157033198               0.01 )
         (  0.134698694119006 0.0431864095298557               0.01 )
         (   0.13577411658057 0.0432752119651581               0.01 )
         (  0.136853141004876  0.043363224052668               0.01 )
         (   0.13793575672106 0.0434504468290158               0.01 )
         (  0.139021953022738 0.0435368813236318               0.01 )
         (  0.140111719168118 0.0436225285583673               0.01 )
         (  0.141205044380106 0.0437073895471292               0.01 )
         (  0.142301917846409 0.0437914652955267               0.01 )
         (  0.143402328719645 0.0438747568005306               0.01 )
         (  0.144506266117449 0.0439572650501462               0.01 )
         (  0.145613719122581 0.0440389910230974               0.01 )
         (  0.146724676783034 0.0441199356885257               0.01 )
         (  0.147839128112142  0.044200100005701               0.01 )
         (  0.148957062088689 0.0442794849237454               0.01 )
         (  0.150078467657017 0.0443580913813715               0.01 )
         (  0.151203333727139 0.0444359203066323               0.01 )
         (  0.152331649174841 0.0445129726166856               0.01 )
         (  0.153463402841801 0.0445892492175717               0.01 )
         (  0.154598583535695  0.044664751004004               0.01 )
         (  0.155737180030304 0.0447394788591734               0.01 )
         (  0.156879181065633 0.0448134336545665               0.01 )
         (  0.158024575348017 0.0448866162497974               0.01 )
         (  0.159173351550234 0.0449590274924525               0.01 )
         (  0.160325498311615 0.0450306682179499               0.01 )
         (  0.161481004238162 0.0451015392494117               0.01 )
         (  0.162639857902654 0.0451716413975507               0.01 )
         (  0.163802047844764 0.0452409754605707               0.01 )
         (  0.164967562571171   0.04530954222408               0.01 )
         (  0.166136390555676 0.0453773424610194               0.01 )
         (   0.16730852023931 0.0454443769316039               0.01 )
         (  0.168483940030457 0.0455106463832776               0.01 )
         (  0.169662638304959 0.0455761515506832               0.01 )
         (  0.170844603406241 0.0456408931556446               0.01 )
         (  0.172029823645416 0.0457048719071638               0.01 )
         (   0.17321828730141 0.0457680885014311               0.01 )
         (  0.174409982621072 0.0458305436218491               0.01 )
         (  0.175604897819291 0.0458922379390707               0.01 )
         (  0.176803021079115 0.0459531721110506               0.01 )
         (  0.178004340551866 0.0460133467831101               0.01 )
         (  0.179208844357256 0.0460727625880161               0.01 )
         (  0.180416520583507 0.0461314201460728               0.01 )
         (   0.18162735728747 0.0461893200652277               0.01 )
         (  0.182841342494736 0.0462464629411905               0.01 )
         (  0.184058464199764 0.0463028493575655               0.01 )
         (  0.185278710365992 0.0463584798859975               0.01 )

     )

  spline 17 15                      // lowercurve-1+z (v8+z v11+z)
     (
         ( 2.47234127703777e-06 -0.000274042486797057               0.01 )
         ( 9.88934065837554e-06 -0.000548073192161469               0.01 )
         ( 2.22509247945202e-05 -0.000822080336657393               0.01 )
         ( 3.95569714372601e-05 -0.00109605214486283               0.01 )
         ( 6.18073094408311e-05 -0.00136997684736623               0.01 )
         ( 8.90017187634151e-05 -0.00164384268276628               0.01 )
         ( 0.000121139930469694 -0.00191763789967532               0.01 )
         ( 0.000158221626733068 -0.00219135075871119               0.01 )
         ( 0.000200246440839158 -0.00246496953449389               0.01 )
         ( 0.000247213957189241 -0.00273848251763353               0.01 )
         ( 0.000299123711304361 -0.00301187801671592               0.01 )
         ( 0.000355975189829993 -0.00328514436028363               0.01 )
         ( 0.000417767830541094 -0.00355826989881129               0.01 )
         ( 0.000484501022347816 -0.00383124300667579               0.01 )
         ( 0.000556174105301066 -0.00410405208411772               0.01 )
         ( 0.000632786370599714 -0.0043766855592007               0.01 )
         ( 0.000714337060597037 -0.0046491318897584               0.01 )
         ( 0.000800825368808433 -0.00492137956533691               0.01 )
         ( 0.000892250439919584 -0.00519341710912834               0.01 )
         ( 0.000988611369794445 -0.00546523307989363               0.01 )
         ( 0.00108990720548463 -0.00573681607387888               0.01 )
         ( 0.00119613694523868 -0.00600815472671986               0.01 )
         ( 0.00130729953851189 -0.00627923771533656               0.01 )
         ( 0.00142339388597679 -0.00655005375981732               0.01 )
         ( 0.00154441883953399 -0.00682059162529123               0.01 )
         ( 0.00167037320232355 -0.00709084012378892               0.01 )
         ( 0.00180125572873674 -0.00736078811609081               0.01 )
         ( 0.00193706512442854 -0.00763042451356299               0.01 )
         ( 0.00207780004633018 -0.00789973827997909               0.01 )
         ( 0.00222345910266269 -0.00816871843332929               0.01 )
         ( 0.00237404085295045 -0.00843735404761423               0.01 )
         ( 0.00252954380803561 -0.00870563425462501               0.01 )
         ( 0.00268996643009256 -0.00897354824570718               0.01 )
         ( 0.00285530713264354 -0.00924108527351017               0.01 )
         ( 0.00302556428057388 -0.00950823465371946               0.01 )
         ( 0.00320073619014855 -0.00977498576677326               0.01 )
         ( 0.00338082112902849 -0.0100413280595614               0.01 )
         ( 0.00356581731628813 -0.0103072510471075               0.01 )
         ( 0.00375572292243248 -0.0105727443142326               0.01 )
         ( 0.00395053606941576 -0.0108377975172011               0.01 )
         ( 0.00415025483065962 -0.0111024003853476               0.01 )
         ( 0.00435487723107231 -0.0113665427226847               0.01 )
         ( 0.00456440124706814 -0.0116302144094914               0.01 )
         ( 0.0047788248065877 -0.0118934054038812               0.01 )
         ( 0.00499814578911811 -0.0121561057433502               0.01 )
         ( 0.00522236202571402 -0.0124183055463042               0.01 )
         ( 0.00545147129901929 -0.0126799950135645               0.01 )
         ( 0.00568547134328867 -0.0129411644298527               0.01 )
         ( 0.0059243598444102 -0.0132018041652527               0.01 )
         ( 0.00616813443992836 -0.0134619046766515               0.01 )
         ( 0.00641679271906714 -0.013721456509156               0.01 )
         ( 0.00667033222275398 -0.0139804502974879               0.01 )
         ( 0.00692875044364427 -0.0142388767673545               0.01 )
         ( 0.00719204482614577 -0.014496726736796               0.01 )
         ( 0.00746021276644426 -0.0147539911175088               0.01 )
         ( 0.00773325161252902 -0.0150106609161441               0.01 )
         ( 0.00801115866421925 -0.0152667272355819               0.01 )
         ( 0.00829393117319066 -0.0155221812761796               0.01 )
         ( 0.00858156634300261 -0.0157770143369959               0.01 )
         ( 0.00887406132912594 -0.0160312178169883               0.01 )
         ( 0.00917141323897092 -0.0162847832161844               0.01 )
         ( 0.00947361913191597 -0.016537702136828               0.01 )
         ( 0.00978067601933663 -0.0167899662844973               0.01 )
         ( 0.0100925808646353 -0.0170415674691971               0.01 )
         (  0.010409330583271 -0.017292497606423               0.01 )
         ( 0.0107309220427902 -0.0175427487181993               0.01 )
         ( 0.0110573520628575 -0.0177923129340883               0.01 )
         ( 0.0113886174152872 -0.0180411824921717               0.01 )
         ( 0.0117247148240753 -0.0182893497400044               0.01 )
         ( 0.0120656409654319 -0.0185368071355395               0.01 )
         ( 0.0124113924678139 -0.0187835472480244               0.01 )
         ( 0.0127619659119584 -0.0190295627588685               0.01 )
         ( 0.0131173578309166 -0.0192748464624819               0.01 )
         ( 0.0134775647100881 -0.0195193912670841               0.01 )
         ( 0.0138425829872555 -0.019763190195484               0.01 )
         ( 0.0142124090526199 -0.0200062363858299               0.01 )
         ( 0.0145870392488361 -0.0202485230923293               0.01 )
         ( 0.0149664698710496 -0.0204900436859398               0.01 )
         ( 0.0153506971669323 -0.0207307916550284               0.01 )
         ( 0.0157397173367201 -0.0209707606060017               0.01 )
         ( 0.0161335265332506 -0.0212099442639046               0.01 )
         ( 0.0165321208620008 -0.0214483364729893               0.01 )
         (  0.016935496381126 -0.021685931197253               0.01 )
         ( 0.0173436491014983 -0.0219227225209448               0.01 )
         ( 0.0177565749867465 -0.0221587046490417               0.01 )
         ( 0.0181742699532957 -0.0223938719076938               0.01 )
         ( 0.0185967298704078 -0.0226282187446378               0.01 )
         ( 0.0190239505602226 -0.0228617397295797               0.01 )
         ( 0.0194559277977986 -0.0230944295545457               0.01 )
         ( 0.0198926573111552 -0.0233262830342023               0.01 )
         ( 0.0203341347813149 -0.0235572951061447               0.01 )
         ( 0.0207803558423457 -0.023787460831153               0.01 )
         ( 0.0212313160814045 -0.0240167753934183               0.01 )
         ( 0.0216870110387811 -0.0242452341007357               0.01 )
         ( 0.0221474362079415 -0.0244728323846666               0.01 )
         ( 0.0226125870355732 -0.0246995658006693               0.01 )
         ( 0.0230824589216298 -0.0249254300281976               0.01 )
         ( 0.0235570472193766 -0.0251504208707678               0.01 )