/*--------------------------------*- C++ -*----------------------------------*\
  =========                 |
  \\      /  F ield         | OpenFOAM: The Open Source CFD Toolbox
   \\    /   O peration     | Website:  https://openfoam.org
    \\  /    A nd           | Version:  7
     \\/     M anipulation  |
\*---------------------------------------------------------------------------*/
FoamFile
{
    version     2.0;
    format      ascii;
    class       polyBoundaryMesh;
    location    "constant/polyMesh";
    object      boundary;
}
// * * * * * * * * * * * * * * * * * * * * * * * * * * * * * * * * * * * * * //

26
(
    inlet-l
    {
        type            patch;
        nFaces          1;
        startFace       45906;
    }
    airfoil-l1
    {
        type            wall;
        inGroups        List<word> 1(wall);
        nFaces          0;
        startFace       45907;
    }
    empty-1
    {
        type            empty;
        inGroups        List<word> 1(empty);
        nFaces          5;
        startFace       45907;
    }
    empty-2
    {
        type            empty;
        inGroups        List<word> 1(empty);
        nFaces          5;
        startFace       45912;
    }
    wall-l1
    {
        type            wall;
        inGroups        List<word> 1(wall);
        nFaces          67;
        startFace       45917;
    }
    airfoil-l2
    {
        type            wall;
        inGroups        List<word> 1(wall);
        nFaces          66;
        startFace       45984;
    }
    empty-3
    {
        type            empty;
        inGroups        List<word> 1(empty);
        nFaces          12283;
        startFace       46050;
    }
    empty-4
    {
        type            empty;
        inGroups        List<word> 1(empty);
        nFaces          12283;
        startFace       58333;
    }
    wall-l2
    {
        type            wall;
        inGroups        List<word> 1(wall);
        nFaces          74;
        startFace       70616;
    }
    outlet-l
    {
        type            patch;
        nFaces          127;
        startFace       70690;
    }
    empty-5
    {
        type            empty;
        inGroups        List<word> 1(empty);
        nFaces          10829;
        startFace       70817;
    }
    empty-6
    {
        type            empty;
        inGroups        List<word> 1(empty);
        nFaces          10829;
        startFace       81646;
    }
    outlet-h
    {
        type            patch;
        nFaces          0;
        startFace       92475;
    }
    wall-h2
    {
        type            wall;
        inGroups        List<word> 1(wall);
        nFaces          0;
        startFace       92475;
    }
    empty-7
    {
        type            empty;
        inGroups        List<word> 1(empty);
        nFaces          0;
        startFace       92475;
    }
    empty-8
    {
        type            empty;
        inGroups        List<word> 1(empty);
        nFaces          0;
        startFace       92475;
    }
    airfoil-h2
    {
        type            wall;
        inGroups        List<word> 1(wall);
        nFaces          0;
        startFace       92475;
    }
    wall-h1
    {
        type            wall;
        inGroups        List<word> 1(wall);
        nFaces          0;
        startFace       92475;
    }
    empty-9
    {
        type            empty;
        inGroups        List<word> 1(empty);
        nFaces          0;
        startFace       92475;
    }
    empty-10
    {
        type            empty;
        inGroups        List<word> 1(empty);
        nFaces          0;
        startFace       92475;
    }
    inlet-h
    {
        type            patch;
        nFaces          0;
        startFace       92475;
    }
    airfoil-h1
    {
        type            wall;
        inGroups        List<word> 1(wall);
        nFaces          0;
        startFace       92475;
    }
    empty-11
    {
        type            empty;
        inGroups        List<word> 1(empty);
        nFaces          0;
        startFace       92475;
    }
    empty-12
    {
        type            empty;
        inGroups        List<word> 1(empty);
        nFaces          0;
        startFace       92475;
    }
    procBoundary1to0
    {
        type            processor;
        inGroups        List<word> 1(processor);
        nFaces          188;
        startFace       92475;
        matchTolerance  0.0001;
        transform       unknown;
        myProcNo        1;
        neighbProcNo    0;
    }
    procBoundary1to2
    {
        type            processor;
        inGroups        List<word> 1(processor);
        nFaces          133;
        startFace       92663;
        matchTolerance  0.0001;
        transform       unknown;
        myProcNo        1;
        neighbProcNo    2;
    }
)

// ************************************************************************* //
